28

C        0.31300493       0.18917134      -2.54680413
C        0.95155335       1.36112249      -2.13843331
C       -0.07068264       2.21494397      -1.55621939
C       -1.12167335       0.24823432      -2.15797424
C       -1.29655352       1.43760474      -1.42513015
C       -1.43238652      -0.99036505      -1.57681765
C        0.89099219      -0.96338415      -1.90776302
C       -0.16251711      -1.79888607      -1.50171248
C        1.89595038       0.99698492      -1.08976307
C        1.87231498      -0.48041479      -0.92403320
C        0.35767779       2.53453307      -0.26690112
C        1.63098996       1.82110060       0.02059615
C       -1.65618976       1.36075472       0.01553312
C       -0.60728151       2.11781355       0.71597133
C       -2.04168657      -1.04847119      -0.31261811
C       -2.06673171       0.14210180       0.55103438
C       -0.12540002      -2.42876107      -0.24859860
C       -1.41121831      -2.10918493       0.42780113
C        1.84889223      -1.02158418       0.35932535
C        0.90193338      -2.12627863       0.66536883
C        1.49790481       1.25993902       1.29957954
C        0.09528922       1.53017769       1.78081907
C        1.75625798      -0.10510988       1.50626165
C       -1.50304386      -0.30745121       1.85137243
C       -1.15725961      -1.71919342       1.74362433
C        0.27467587      -1.85601512       1.95288950
C       -0.38563211       0.36028154       2.38783636
C        0.73881954      -0.61366409       2.38775531
